XYZ_Files/Methylthiophene_Phi_0_Theta_0_Methylthiophene.xyz
 OpenBabel10202316363D

 22 23  0  0  0  0  0  0  0  0999 V2000
   -3.4191   -1.9653   -0.0002 C   0  0  0  0  0  0  0  0  0  0  0  0
   -2.3821   -2.9017    0.0001 C   0  0  0  0  0  0  0  0  0  0  0  0
   -1.0698   -2.3556    0.0003 C   0  0  0  0  0  0  0  0  0  0  0  0
   -2.5718   -3.9858    0.0000 H   0  0  0  0  0  0  0  0  0  0  0  0
   -1.0835   -0.9494    0.0002 C   0  0  0  0  0  0  0  0  0  0  0  0
   -2.7379   -0.3455    0.0004 S   0  0  0  0  0  0  0  0  0  0  0  0
    0.1737   -3.2008    0.0004 C   0  0  0  0  0  0  0  0  0  0  0  0
   -0.0780   -4.2790    0.0004 H   0  0  0  0  0  0  0  0  0  0  0  0
    0.8044   -3.0058    0.8928 H   0  0  0  0  0  0  0  0  0  0  0  0
    0.8045   -3.0059   -0.8920 H   0  0  0  0  0  0  0  0  0  0  0  0
   -4.5040   -2.1181   -0.0002 H   0  0  0  0  0  0  0  0  0  0  0  0
    0.0000    0.0000    0.0000 C   0  0  0  0  0  0  0  0  0  0  0  0
   -0.0750    1.3961   -0.0000 C   0  0  0  0  0  0  0  0  0  0  0  0
    1.1785    2.0654   -0.0002 C   0  0  0  0  0  0  0  0  0  0  0  0
   -1.0356    1.9327    0.0001 H   0  0  0  0  0  0  0  0  0  0  0  0
    2.2600    1.1659   -0.0003 C   0  0  0  0  0  0  0  0  0  0  0  0
    1.6886   -0.4972   -0.0002 S   0  0  0  0  0  0  0  0  0  0  0  0
    1.3126    3.5628   -0.0002 C   0  0  0  0  0  0  0  0  0  0  0  0
    0.3189    4.0510   -0.0001 H   0  0  0  0  0  0  0  0  0  0  0  0
    1.8628    3.9275   -0.8927 H   0  0  0  0  0  0  0  0  0  0  0  0
    1.8631    3.9276    0.8921 H   0  0  0  0  0  0  0  0  0  0  0  0
    3.3358    1.3785   -0.0004 H   0  0  0  0  0  0  0  0  0  0  0  0
  1  2  2  0  0  0  0
  1  6  1  0  0  0  0
  2  3  1  0  0  0  0
  3  7  1  0  0  0  0
  4  2  1  0  0  0  0
  5  3  2  0  0  0  0
  5  6  1  0  0  0  0
  7  9  1  0  0  0  0
  8  7  1  0  0  0  0
 10  7  1  0  0  0  0
 11  1  1  0  0  0  0
 12  5  1  0  0  0  0
 13 12  2  0  0  0  0
 13 15  1  0  0  0  0
 14 13  1  0  0  0  0
 16 17  1  0  0  0  0
 16 14  2  0  0  0  0
 17 12  1  0  0  0  0
 18 14  1  0  0  0  0
 18 19  1  0  0  0  0
 18 21  1  0  0  0  0
 20 18  1  0  0  0  0
 22 16  1  0  0  0  0
M  END
