@<TRIPOS>MOLECULE
generated by VMD
   39    0    1    0    0
SMALL
NO_CHARGES
****
Energy = 0

@<TRIPOS>ATOM
      1  C          0.1959   -6.7414   -0.1663    C    1             0.000000
      2  C          1.1960   -6.1556   -1.0057    C    1             0.000000
      3  C         -0.6349   -5.7915    0.5302    C    1             0.000000
      4  C          1.4096   -4.8038   -1.1846    C    1             0.000000
      5  H          1.8685   -6.8215   -1.5702    H    1             0.000000
      6  C         -0.4110   -4.3786    0.3433    C    1             0.000000
      7  C          0.6084   -3.8380   -0.5117    C    1             0.000000
      8  C         -1.2112   -3.4131    1.0154    C    1             0.000000
      9  C          0.8306   -2.4265   -0.6972    C    1             0.000000
     10  C         -0.9999   -2.0593    0.8390    C    1             0.000000
     11  C          0.0000   -1.4782    0.0000    C    1             0.000000
     12  H         -1.6730   -1.3948    1.4043    H    1             0.000000
     13  C         -1.7411   -6.1880    1.4561    C    1             0.000000
     14  C         -2.3072   -3.7982    1.9349    C    1             0.000000
     15  N         -2.4948   -5.1700    2.0901    N    1             0.000000
     16  C          2.5085   -4.4250   -2.1067    C    1             0.000000
     17  C          1.9369   -2.0366   -1.6245    C    1             0.000000
     18  N          2.6909   -3.0492   -2.2585    N    1             0.000000
     19  O         -2.0427   -7.3531    1.7054    O    1             0.000000
     20  O         -3.0138   -2.9869    2.5291    O    1             0.000000
     21  O          3.2069   -5.2489   -2.6937    O    1             0.000000
     22  O          2.2541   -0.8788   -1.8888    O    1             0.000000
     23  C         -3.5775   -5.5638    2.9973    C    1             0.000000
     24  H         -3.6129   -6.6641    3.0255    H    1             0.000000
     25  H         -4.5368   -5.1471    2.6351    H    1             0.000000
     26  H         -3.3878   -5.1488    4.0057    H    1             0.000000
     27  C          3.7569   -2.5875   -3.1523    C    1             0.000000
     28  H          4.2485   -3.4833   -3.5662    H    1             0.000000
     29  H          4.4788   -1.9650   -2.5904    H    1             0.000000
     30  H          3.3296   -1.9629   -3.9597    H    1             0.000000
     31  H          0.0532   -7.8223   -0.0470    H    1             0.000000
     32  C          0.0000    0.0000    0.0000    C    1             0.000000
     33  S          0.3964    0.6870    1.5805    S    1             0.000000
     34  C          1.2152    2.1053    0.9049    C    1             0.000000
     35  C          0.4988    0.8644   -0.9854    C    1             0.000000
     36  C          1.1589    2.0078   -0.4935    C    1             0.000000
     37  H          0.3810    0.6603   -2.0599    H    1             0.000000
     38  H          1.5993    2.7707   -1.1526    H    1             0.000000
     39  H          1.6555    2.8681    1.5560    H    1             0.000000

@<TRIPOS>SUBSTRUCTURE
1 ****        1 TEMP                        0 ****  **** 0 ROOT
