@<TRIPOS>MOLECULE
../XYZ_Files/Methylthiophene_Phi_50_Theta_340_Methylthiophene.xyz
 22 23 0 0 0
SMALL
GASTEIGER

@<TRIPOS>ATOM
      1 C           0.2644   -3.8667    0.7286 C.ar    1  UNL1       -0.0238
      2 C          -0.2098   -3.7040   -0.5755 C.ar    1  UNL1       -0.0515
      3 C          -0.3647   -2.3571   -1.0023 C.ar    1  UNL1       -0.0385
      4 H          -0.4461   -4.5611   -1.2242 H       1  UNL1        0.0626
      5 C          -0.0000   -1.4407   -0.0000 C.ar    1  UNL1        0.0145
      6 S           0.5283   -2.2870    1.4513 S.2     1  UNL1       -0.0996
      7 C          -0.8623   -1.9787   -2.3699 C.3     1  UNL1       -0.0389
      8 H          -1.0830   -2.8787   -2.9760 H       1  UNL1        0.0278
      9 H          -0.1155   -1.3760   -2.9279 H       1  UNL1        0.0278
     10 H          -1.7928   -1.3757   -2.3176 H       1  UNL1        0.0278
     11 H           0.4695   -4.7834    1.2926 H       1  UNL1        0.0693
     12 C           0.0000    0.0000    0.0000 C.3     1  UNL1        0.0892
     13 C           0.6616    0.5551    1.0994 C.2     1  UNL1       -0.0613
     14 C           1.7217    1.4446    0.7767 C.2     1  UNL1       -0.0606
     15 H           0.3791    0.3180    2.1361 H       1  UNL1        0.0590
     16 C           1.8908    1.5864   -0.6125 C.3     1  UNL1        0.0428
     17 S           0.7219    0.6057   -1.4868 S.3     1  UNL1       -0.1334
     18 C           2.5550    2.1438    1.8146 C.3     1  UNL1       -0.0426
     19 H           2.2289    1.8702    2.8367 H       1  UNL1        0.0275
     20 H           2.4826    3.2480    1.7262 H       1  UNL1        0.0275
     21 H           3.6298    1.8807    1.7262 H       1  UNL1        0.0275
     22 H           2.6179    2.1966   -1.1616 H       1  UNL1        0.0472
@<TRIPOS>BOND
     1     8     7    1
     2     9     7    1
     3     7    10    1
     4     7     3    1
     5    17    16    1
     6    17    12    1
     7     4     2    1
     8    22    16    1
     9     3     2   ar
    10     3     5   ar
    11    16    14    1
    12     2     1   ar
    13    12     5    1
    14    12    13    1
    15     5     6   ar
    16     1    11    1
    17     1     6   ar
    18    14    13    2
    19    14    18    1
    20    13    15    1
    21    21    18    1
    22    20    18    1
    23    18    19    1
