@<TRIPOS>MOLECULE
../XYZ_Files/Methylthiophene_Phi_15_Theta_270_Methylthiophene.xyz
 22 23 0 0 0
SMALL
GASTEIGER

@<TRIPOS>ATOM
      1 C           0.7751   -3.8667    0.0007 C.ar    1  UNL1       -0.0235
      2 C          -0.6126   -3.7040    0.0003 C.ar    1  UNL1       -0.0512
      3 C          -1.0666   -2.3571   -0.0001 C.ar    1  UNL1       -0.0352
      4 H          -1.3029   -4.5611    0.0005 H       1  UNL1        0.0626
      5 C          -0.0000   -1.4407   -0.0000 C.ar    1  UNL1        0.0288
      6 S           1.5445   -2.2870   -0.0000 S.2     1  UNL1       -0.0959
      7 C          -2.5219   -1.9787   -0.0003 C.3     1  UNL1       -0.0386
      8 H          -3.1669   -2.8787   -0.0002 H       1  UNL1        0.0278
      9 H          -2.7908   -1.3760   -0.8929 H       1  UNL1        0.0278
     10 H          -2.7910   -1.3757    0.8920 H       1  UNL1        0.0278
     11 H           1.3753   -4.7834    0.0009 H       1  UNL1        0.0693
     12 C           0.0000    0.0000    0.0000 C.ar    1  UNL1        0.0264
     13 C           0.2235    0.8342    1.0994 C.ar    1  UNL1       -0.0435
     14 C           0.5817    2.1709    0.7767 C.ar    1  UNL1       -0.0428
     15 H           0.1281    0.4779    2.1361 H       1  UNL1        0.0632
     16 C           0.6389    2.3840   -0.6125 C.ar    1  UNL1       -0.0208
     17 S           0.2439    0.9103   -1.4868 S.2     1  UNL1       -0.0959
     18 C           0.8633    3.2216    1.8146 C.3     1  UNL1       -0.0392
     19 H           0.7531    2.8105    2.8367 H       1  UNL1        0.0278
     20 H           0.1707    4.0846    1.7262 H       1  UNL1        0.0278
     21 H           1.8946    3.6226    1.7262 H       1  UNL1        0.0278
     22 H           0.8846    3.3009   -1.1616 H       1  UNL1        0.0696
@<TRIPOS>BOND
     1    17    16   ar
     2    17    12   ar
     3    22    16    1
     4     9     7    1
     5    16    14   ar
     6     7     8    1
     7     7     3    1
     8     7    10    1
     9     3     5   ar
    10     3     2   ar
    11     6     5   ar
    12     6     1   ar
    13    12     5    1
    14    12    13   ar
    15     2     4    1
    16     2     1   ar
    17     1    11    1
    18    14    13   ar
    19    14    18    1
    20    13    15    1
    21    21    18    1
    22    20    18    1
    23    18    19    1
