@<TRIPOS>MOLECULE
../XYZ_Files/Methylthiophene_Phi_10_Theta_260_Methylthiophene.xyz
 22 23 0 0 0
SMALL
GASTEIGER

@<TRIPOS>ATOM
      1 C           0.7635   -3.8667   -0.1339 C.ar    1  UNL1       -0.0235
      2 C          -0.6032   -3.7040    0.1067 C.ar    1  UNL1       -0.0512
      3 C          -1.0504   -2.3571    0.1852 C.ar    1  UNL1       -0.0352
      4 H          -1.2830   -4.5611    0.2267 H       1  UNL1        0.0626
      5 C           0.0000   -1.4407    0.0000 C.ar    1  UNL1        0.0288
      6 S           1.5210   -2.2870   -0.2682 S.2     1  UNL1       -0.0959
      7 C          -2.4836   -1.9787    0.4376 C.3     1  UNL1       -0.0386
      8 H          -3.1189   -2.8787    0.5497 H       1  UNL1        0.0278
      9 H          -2.9035   -1.3760   -0.3947 H       1  UNL1        0.0278
     10 H          -2.5937   -1.3757    1.3631 H       1  UNL1        0.0278
     11 H           1.3545   -4.7834   -0.2379 H       1  UNL1        0.0693
     12 C           0.0000    0.0000    0.0000 C.ar    1  UNL1        0.0264
     13 C           0.1500    0.8505    1.0994 C.ar    1  UNL1       -0.0435
     14 C           0.3903    2.2134    0.7767 C.ar    1  UNL1       -0.0428
     15 H           0.0859    0.4873    2.1361 H       1  UNL1        0.0632
     16 C           0.4287    2.4307   -0.6125 C.ar    1  UNL1       -0.0208
     17 S           0.1637    0.9281   -1.4868 S.2     1  UNL1       -0.0959
     18 C           0.5792    3.2846    1.8146 C.3     1  UNL1       -0.0392
     19 H           0.5053    2.8654    2.8367 H       1  UNL1        0.0278
     20 H          -0.1860    4.0839    1.7262 H       1  UNL1        0.0278
     21 H           1.5717    3.7739    1.7262 H       1  UNL1        0.0278
     22 H           0.5935    3.3654   -1.1616 H       1  UNL1        0.0696
@<TRIPOS>BOND
     1    17    16   ar
     2    17    12   ar
     3    22    16    1
     4    16    14   ar
     5     9     7    1
     6     6     1   ar
     7     6     5   ar
     8    11     1    1
     9     1     2   ar
    10    12     5    1
    11    12    13   ar
    12     5     3   ar
    13     2     3   ar
    14     2     4    1
    15     3     7    1
    16     7     8    1
    17     7    10    1
    18    14    13   ar
    19    14    18    1
    20    13    15    1
    21    21    18    1
    22    20    18    1
    23    18    19    1
