@<TRIPOS>MOLECULE
../XYZ_Files/Methylthiophene_Phi_60_Theta_180_Methylthiophene.xyz
 22 23 0 0 0
SMALL
GASTEIGER

@<TRIPOS>ATOM
      1 C           0.0007   -3.8667   -0.7751 C.ar    1  UNL1       -0.0238
      2 C           0.0003   -3.7040    0.6126 C.ar    1  UNL1       -0.0515
      3 C          -0.0001   -2.3571    1.0666 C.ar    1  UNL1       -0.0385
      4 H           0.0005   -4.5611    1.3029 H       1  UNL1        0.0626
      5 C          -0.0000   -1.4407   -0.0000 C.ar    1  UNL1        0.0145
      6 S          -0.0000   -2.2870   -1.5445 S.2     1  UNL1       -0.0996
      7 C          -0.0003   -1.9787    2.5219 C.3     1  UNL1       -0.0389
      8 H          -0.0002   -2.8787    3.1669 H       1  UNL1        0.0278
      9 H          -0.8929   -1.3760    2.7908 H       1  UNL1        0.0278
     10 H           0.8920   -1.3757    2.7910 H       1  UNL1        0.0278
     11 H           0.0009   -4.7834   -1.3753 H       1  UNL1        0.0693
     12 C           0.0000    0.0000    0.0000 C.3     1  UNL1        0.0892
     13 C           0.7479    0.4318    1.0994 C.2     1  UNL1       -0.0613
     14 C           1.9464    1.1237    0.7767 C.2     1  UNL1       -0.0606
     15 H           0.4285    0.2474    2.1361 H       1  UNL1        0.0590
     16 C           2.1375    1.2340   -0.6125 C.3     1  UNL1        0.0428
     17 S           0.8162    0.4712   -1.4868 S.3     1  UNL1       -0.1334
     18 C           2.8885    1.6676    1.8146 C.3     1  UNL1       -0.0426
     19 H           2.5198    1.4547    2.8367 H       1  UNL1        0.0275
     20 H           3.0089    2.7675    1.7262 H       1  UNL1        0.0275
     21 H           3.9013    1.2219    1.7262 H       1  UNL1        0.0275
     22 H           2.9596    1.7086   -1.1616 H       1  UNL1        0.0472
@<TRIPOS>BOND
     1     6     1   ar
     2     6     5   ar
     3    17    16    1
     4    17    12    1
     5    11     1    1
     6    22    16    1
     7     1     2   ar
     8    16    14    1
     9    12     5    1
    10    12    13    1
    11     5     3   ar
    12     2     3   ar
    13     2     4    1
    14    14    13    2
    15    14    18    1
    16     3     7    1
    17    13    15    1
    18    21    18    1
    19    20    18    1
    20    18    19    1
    21     7     9    1
    22     7    10    1
    23     7     8    1
