@<TRIPOS>MOLECULE
../XYZ_Files/Methylthiophene_Phi_0_Theta_0_Methylthiophene.xyz
 22 23 0 0 0
SMALL
GASTEIGER

@<TRIPOS>ATOM
      1 C          -3.4191   -1.9653   -0.0002 C.ar    1  UNL1       -0.0235
      2 C          -2.3821   -2.9017    0.0001 C.ar    1  UNL1       -0.0512
      3 C          -1.0698   -2.3556    0.0003 C.ar    1  UNL1       -0.0352
      4 H          -2.5718   -3.9858    0.0000 H       1  UNL1        0.0626
      5 C          -1.0835   -0.9494    0.0002 C.ar    1  UNL1        0.0288
      6 S          -2.7379   -0.3455    0.0004 S.2     1  UNL1       -0.0959
      7 C           0.1737   -3.2008    0.0004 C.3     1  UNL1       -0.0386
      8 H          -0.0780   -4.2790    0.0004 H       1  UNL1        0.0278
      9 H           0.8044   -3.0058    0.8928 H       1  UNL1        0.0278
     10 H           0.8045   -3.0059   -0.8920 H       1  UNL1        0.0278
     11 H          -4.5040   -2.1181   -0.0002 H       1  UNL1        0.0693
     12 C           0.0000    0.0000    0.0000 C.ar    1  UNL1        0.0264
     13 C          -0.0750    1.3961   -0.0000 C.ar    1  UNL1       -0.0435
     14 C           1.1785    2.0654   -0.0002 C.ar    1  UNL1       -0.0428
     15 H          -1.0356    1.9327    0.0001 H       1  UNL1        0.0632
     16 C           2.2600    1.1659   -0.0003 C.ar    1  UNL1       -0.0208
     17 S           1.6886   -0.4972   -0.0002 S.2     1  UNL1       -0.0959
     18 C           1.3126    3.5628   -0.0002 C.3     1  UNL1       -0.0392
     19 H           0.3189    4.0510   -0.0001 H       1  UNL1        0.0278
     20 H           1.8628    3.9275   -0.8927 H       1  UNL1        0.0278
     21 H           1.8631    3.9276    0.8921 H       1  UNL1        0.0278
     22 H           3.3358    1.3785   -0.0004 H       1  UNL1        0.0696
@<TRIPOS>BOND
     1    20    18    1
     2    10     7    1
     3    22    16    1
     4    16    17   ar
     5    16    14   ar
     6    18    14    1
     7    18    19    1
     8    18    21    1
     9    11     1    1
    10    17    12   ar
    11    14    13   ar
    12     1     2   ar
    13     1     6   ar
    14    13    12   ar
    15    13    15    1
    16    12     5    1
    17     4     2    1
    18     2     3   ar
    19     5     3   ar
    20     5     6   ar
    21     3     7    1
    22     8     7    1
    23     7     9    1
