@<TRIPOS>MOLECULE
../XYZ_Files/Methylthiophene_Phi_5_Theta_60_Methylthiophene.xyz
 22 23 0 0 0
SMALL
GASTEIGER

@<TRIPOS>ATOM
      1 C          -0.6716   -3.8667    0.3869 C.ar    1  UNL1       -0.0235
      2 C           0.5303   -3.7040   -0.3065 C.ar    1  UNL1       -0.0512
      3 C           0.9238   -2.3571   -0.5333 C.ar    1  UNL1       -0.0352
      4 H           1.1281   -4.5611   -0.6519 H       1  UNL1        0.0626
      5 C           0.0000   -1.4407    0.0000 C.ar    1  UNL1        0.0288
      6 S          -1.3376   -2.2870    0.7722 S.2     1  UNL1       -0.0959
      7 C           2.1842   -1.9787   -1.2607 C.3     1  UNL1       -0.0386
      8 H           2.7428   -2.8787   -1.5833 H       1  UNL1        0.0278
      9 H           2.8633   -1.3760   -0.6222 H       1  UNL1        0.0278
     10 H           1.9711   -1.3757   -2.1680 H       1  UNL1        0.0278
     11 H          -1.1915   -4.7834    0.6868 H       1  UNL1        0.0693
     12 C           0.0000    0.0000    0.0000 C.ar    1  UNL1        0.0264
     13 C           0.0753    0.8603    1.0994 C.ar    1  UNL1       -0.0435
     14 C           0.1959    2.2390    0.7767 C.ar    1  UNL1       -0.0428
     15 H           0.0432    0.4929    2.1361 H       1  UNL1        0.0632
     16 C           0.2152    2.4588   -0.6125 C.ar    1  UNL1       -0.0208
     17 S           0.0822    0.9388   -1.4868 S.2     1  UNL1       -0.0959
     18 C           0.2908    3.3226    1.8146 C.3     1  UNL1       -0.0392
     19 H           0.2537    2.8985    2.8367 H       1  UNL1        0.0278
     20 H          -0.5412    4.0521    1.7262 H       1  UNL1        0.0278
     21 H           1.2368    3.8966    1.7262 H       1  UNL1        0.0278
     22 H           0.2979    3.4044   -1.1616 H       1  UNL1        0.0696
@<TRIPOS>BOND
     1    10     7    1
     2     8     7    1
     3    17    16   ar
     4    17    12   ar
     5     7     9    1
     6     7     3    1
     7    22    16    1
     8     4     2    1
     9    16    14   ar
    10     3     2   ar
    11     3     5   ar
    12     2     1   ar
    13    12     5    1
    14    12    13   ar
    15     5     6   ar
    16     1    11    1
    17     1     6   ar
    18    14    13   ar
    19    14    18    1
    20    13    15    1
    21    21    18    1
    22    20    18    1
    23    18    19    1
