@<TRIPOS>MOLECULE
../XYZ_Files/Methylthiophene_Phi_10_Theta_40_Methylthiophene.xyz
 22 23 0 0 0
SMALL
GASTEIGER

@<TRIPOS>ATOM
      1 C          -0.4988   -3.8667    0.5933 C.ar    1  UNL1       -0.0235
      2 C           0.3935   -3.7040   -0.4694 C.ar    1  UNL1       -0.0512
      3 C           0.6857   -2.3571   -0.8171 C.ar    1  UNL1       -0.0352
      4 H           0.8371   -4.5611   -0.9984 H       1  UNL1        0.0626
      5 C           0.0000   -1.4407    0.0000 C.ar    1  UNL1        0.0288
      6 S          -0.9928   -2.2870    1.1831 S.2     1  UNL1       -0.0959
      7 C           1.6213   -1.9787   -1.9317 C.3     1  UNL1       -0.0386
      8 H           2.0358   -2.8787   -2.4259 H       1  UNL1        0.0278
      9 H           2.4779   -1.3760   -1.5640 H       1  UNL1        0.0278
     10 H           1.1107   -1.3757   -2.7114 H       1  UNL1        0.0278
     11 H          -0.8847   -4.7834    1.0529 H       1  UNL1        0.0693
     12 C           0.0000    0.0000    0.0000 C.ar    1  UNL1        0.0264
     13 C           0.1500    0.8505    1.0994 C.ar    1  UNL1       -0.0435
     14 C           0.3903    2.2134    0.7767 C.ar    1  UNL1       -0.0428
     15 H           0.0859    0.4873    2.1361 H       1  UNL1        0.0632
     16 C           0.4287    2.4307   -0.6125 C.ar    1  UNL1       -0.0208
     17 S           0.1637    0.9281   -1.4868 S.2     1  UNL1       -0.0959
     18 C           0.5792    3.2846    1.8146 C.3     1  UNL1       -0.0392
     19 H           0.5053    2.8654    2.8367 H       1  UNL1        0.0278
     20 H          -0.1860    4.0839    1.7262 H       1  UNL1        0.0278
     21 H           1.5717    3.7739    1.7262 H       1  UNL1        0.0278
     22 H           0.5935    3.3654   -1.1616 H       1  UNL1        0.0696
@<TRIPOS>BOND
     1    10     7    1
     2     8     7    1
     3     7     9    1
     4     7     3    1
     5    17    16   ar
     6    17    12   ar
     7    22    16    1
     8     4     2    1
     9     3     2   ar
    10     3     5   ar
    11    16    14   ar
    12     2     1   ar
    13    12     5    1
    14    12    13   ar
    15     5     6   ar
    16     1    11    1
    17     1     6   ar
    18    14    13   ar
    19    14    18    1
    20    13    15    1
    21    21    18    1
    22    20    18    1
    23    18    19    1
