@<TRIPOS>MOLECULE
../XYZ_Files/Methylthiophene_Phi_10_Theta_150_Methylthiophene.xyz
 22 23 0 0 0
SMALL
GASTEIGER

@<TRIPOS>ATOM
      1 C          -0.3869   -3.8667   -0.6716 C.ar    1  UNL1       -0.0235
      2 C           0.3065   -3.7040    0.5303 C.ar    1  UNL1       -0.0512
      3 C           0.5333   -2.3571    0.9238 C.ar    1  UNL1       -0.0352
      4 H           0.6519   -4.5611    1.1281 H       1  UNL1        0.0626
      5 C           0.0000   -1.4407    0.0000 C.ar    1  UNL1        0.0288
      6 S          -0.7722   -2.2870   -1.3376 S.2     1  UNL1       -0.0959
      7 C           1.2607   -1.9787    2.1842 C.3     1  UNL1       -0.0386
      8 H           1.5833   -2.8787    2.7428 H       1  UNL1        0.0278
      9 H           0.6222   -1.3760    2.8633 H       1  UNL1        0.0278
     10 H           2.1680   -1.3757    1.9711 H       1  UNL1        0.0278
     11 H          -0.6868   -4.7834   -1.1915 H       1  UNL1        0.0693
     12 C           0.0000    0.0000    0.0000 C.ar    1  UNL1        0.0264
     13 C           0.1500    0.8505    1.0994 C.ar    1  UNL1       -0.0435
     14 C           0.3903    2.2134    0.7767 C.ar    1  UNL1       -0.0428
     15 H           0.0859    0.4873    2.1361 H       1  UNL1        0.0632
     16 C           0.4287    2.4307   -0.6125 C.ar    1  UNL1       -0.0208
     17 S           0.1637    0.9281   -1.4868 S.2     1  UNL1       -0.0959
     18 C           0.5792    3.2846    1.8146 C.3     1  UNL1       -0.0392
     19 H           0.5053    2.8654    2.8367 H       1  UNL1        0.0278
     20 H          -0.1860    4.0839    1.7262 H       1  UNL1        0.0278
     21 H           1.5717    3.7739    1.7262 H       1  UNL1        0.0278
     22 H           0.5935    3.3654   -1.1616 H       1  UNL1        0.0696
@<TRIPOS>BOND
     1    17    16   ar
     2    17    12   ar
     3     6     1   ar
     4     6     5   ar
     5    11     1    1
     6    22    16    1
     7     1     2   ar
     8    16    14   ar
     9    12     5    1
    10    12    13   ar
    11     5     3   ar
    12     2     3   ar
    13     2     4    1
    14    14    13   ar
    15    14    18    1
    16     3     7    1
    17    13    15    1
    18    21    18    1
    19    20    18    1
    20    18    19    1
    21    10     7    1
    22     7     8    1
    23     7     9    1
