@<TRIPOS>MOLECULE
../XYZ_Files/Methylthiophene_Phi_50_Theta_100_Methylthiophene.xyz
 22 23 0 0 0
SMALL
GASTEIGER

@<TRIPOS>ATOM
      1 C          -0.7632   -3.8667   -0.1353 C.ar    1  UNL1       -0.0238
      2 C           0.6033   -3.7040    0.1061 C.ar    1  UNL1       -0.0515
      3 C           1.0504   -2.3571    0.1853 C.ar    1  UNL1       -0.0385
      4 H           1.2832   -4.5611    0.2258 H       1  UNL1        0.0626
      5 C          -0.0000   -1.4407   -0.0000 C.ar    1  UNL1        0.0145
      6 S          -1.5210   -2.2870   -0.2682 S.2     1  UNL1       -0.0996
      7 C           2.4835   -1.9787    0.4382 C.3     1  UNL1       -0.0389
      8 H           3.1188   -2.8787    0.5502 H       1  UNL1        0.0278
      9 H           2.5934   -1.3760    1.3639 H       1  UNL1        0.0278
     10 H           2.9035   -1.3757   -0.3938 H       1  UNL1        0.0278
     11 H          -1.3542   -4.7834   -0.2397 H       1  UNL1        0.0693
     12 C           0.0000    0.0000    0.0000 C.3     1  UNL1        0.0892
     13 C           0.6616    0.5551    1.0994 C.2     1  UNL1       -0.0613
     14 C           1.7217    1.4446    0.7767 C.2     1  UNL1       -0.0606
     15 H           0.3791    0.3180    2.1361 H       1  UNL1        0.0590
     16 C           1.8908    1.5864   -0.6125 C.3     1  UNL1        0.0428
     17 S           0.7219    0.6057   -1.4868 S.3     1  UNL1       -0.1334
     18 C           2.5550    2.1438    1.8146 C.3     1  UNL1       -0.0426
     19 H           2.2289    1.8702    2.8367 H       1  UNL1        0.0275
     20 H           2.4826    3.2480    1.7262 H       1  UNL1        0.0275
     21 H           3.6298    1.8807    1.7262 H       1  UNL1        0.0275
     22 H           2.6179    2.1966   -1.1616 H       1  UNL1        0.0472
@<TRIPOS>BOND
     1    17    16    1
     2    17    12    1
     3    22    16    1
     4    16    14    1
     5    10     7    1
     6     6     1   ar
     7     6     5   ar
     8    11     1    1
     9     1     2   ar
    10    12     5    1
    11    12    13    1
    12     5     3   ar
    13     2     3   ar
    14     2     4    1
    15     3     7    1
    16     7     8    1
    17     7     9    1
    18    14    13    2
    19    14    18    1
    20    13    15    1
    21    21    18    1
    22    20    18    1
    23    18    19    1
