@<TRIPOS>MOLECULE
../XYZ_Files/Methylthiophene_Phi_15_Theta_250_Methylthiophene.xyz
 22 23 0 0 0
SMALL
GASTEIGER

@<TRIPOS>ATOM
      1 C           0.7286   -3.8667   -0.2644 C.ar    1  UNL1       -0.0235
      2 C          -0.5755   -3.7040    0.2098 C.ar    1  UNL1       -0.0512
      3 C          -1.0023   -2.3571    0.3647 C.ar    1  UNL1       -0.0352
      4 H          -1.2242   -4.5611    0.4461 H       1  UNL1        0.0626
      5 C          -0.0000   -1.4407   -0.0000 C.ar    1  UNL1        0.0288
      6 S           1.4513   -2.2870   -0.5283 S.2     1  UNL1       -0.0959
      7 C          -2.3699   -1.9787    0.8623 C.3     1  UNL1       -0.0386
      8 H          -2.9760   -2.8787    1.0830 H       1  UNL1        0.0278
      9 H          -2.9279   -1.3760    0.1155 H       1  UNL1        0.0278
     10 H          -2.3176   -1.3757    1.7928 H       1  UNL1        0.0278
     11 H           1.2926   -4.7834   -0.4695 H       1  UNL1        0.0693
     12 C           0.0000    0.0000    0.0000 C.ar    1  UNL1        0.0264
     13 C           0.2235    0.8342    1.0994 C.ar    1  UNL1       -0.0435
     14 C           0.5817    2.1709    0.7767 C.ar    1  UNL1       -0.0428
     15 H           0.1281    0.4779    2.1361 H       1  UNL1        0.0632
     16 C           0.6389    2.3840   -0.6125 C.ar    1  UNL1       -0.0208
     17 S           0.2439    0.9103   -1.4868 S.2     1  UNL1       -0.0959
     18 C           0.8633    3.2216    1.8146 C.3     1  UNL1       -0.0392
     19 H           0.7531    2.8105    2.8367 H       1  UNL1        0.0278
     20 H           0.1707    4.0846    1.7262 H       1  UNL1        0.0278
     21 H           1.8946    3.6226    1.7262 H       1  UNL1        0.0278
     22 H           0.8846    3.3009   -1.1616 H       1  UNL1        0.0696
@<TRIPOS>BOND
     1    17    16   ar
     2    17    12   ar
     3    22    16    1
     4    16    14   ar
     5     6     1   ar
     6     6     5   ar
     7    11     1    1
     8     1     2   ar
     9    12     5    1
    10    12    13   ar
    11     5     3   ar
    12     9     7    1
    13     2     3   ar
    14     2     4    1
    15     3     7    1
    16    14    13   ar
    17    14    18    1
    18     7     8    1
    19     7    10    1
    20    13    15    1
    21    21    18    1
    22    20    18    1
    23    18    19    1
