@<TRIPOS>MOLECULE
../XYZ_Files/Methylthiophene_XYZ_Improper_Bend_Methyl_Phi_40.xyz
 15 15 0 0 0
SMALL
GASTEIGER

@<TRIPOS>ATOM
      1 C           0.0000    0.0000    0.0000 C.3     1  UNL1        0.0505
      2 C          -0.0000   -0.8443   -1.1132 C.2     1  UNL1       -0.0667
      3 C           0.0003   -2.2354   -0.8211 C.2     1  UNL1       -0.0610
      4 H          -0.0001   -0.4560   -2.1430 H       1  UNL1        0.0586
      5 C           0.0005   -2.4839    0.5630 C.3     1  UNL1        0.0424
      6 S          -0.0002   -0.9710    1.4645 S.3     1  UNL1       -0.1393
      7 C           0.0005   -3.2998   -1.8832 C.3     1  UNL1       -0.0427
      8 H           0.0003   -2.8516   -2.8957 H       1  UNL1        0.0275
      9 H          -0.8917   -3.9560   -1.8091 H       1  UNL1        0.0275
     10 H           0.8931   -3.9555   -1.8092 H       1  UNL1        0.0275
     11 C          -0.9321    1.1109   -0.0000 C.3     1  UNL1       -0.0453
     12 H          -1.9533    0.7593   -0.0000 H       1  UNL1        0.0247
     13 H          -0.7947    1.7314   -0.8732 H       1  UNL1        0.0247
     14 H          -0.7947    1.7314    0.8732 H       1  UNL1        0.0247
     15 H           0.0006   -3.4420    1.0963 H       1  UNL1        0.0472
@<TRIPOS>BOND
     1     8     7    1
     2     4     2    1
     3     7    10    1
     4     7     9    1
     5     7     3    1
     6     2     3    2
     7     2     1    1
     8    13    11    1
     9     3     5    1
    10     1    11    1
    11     1     6    1
    12    11    12    1
    13    11    14    1
    14     5    15    1
    15     5     6    1
