@<TRIPOS>MOLECULE
../XYZ_Files/Methylthiophene_Phi_30_Theta_160_Methylthiophene.xyz
 22 23 0 0 0
SMALL
GASTEIGER

@<TRIPOS>ATOM
      1 C          -0.2644   -3.8667   -0.7286 C.ar    1  UNL1       -0.0235
      2 C           0.2098   -3.7040    0.5755 C.ar    1  UNL1       -0.0512
      3 C           0.3647   -2.3571    1.0023 C.ar    1  UNL1       -0.0352
      4 H           0.4461   -4.5611    1.2242 H       1  UNL1        0.0626
      5 C          -0.0000   -1.4407   -0.0000 C.ar    1  UNL1        0.0288
      6 S          -0.5283   -2.2870   -1.4513 S.2     1  UNL1       -0.0959
      7 C           0.8623   -1.9787    2.3699 C.3     1  UNL1       -0.0386
      8 H           1.0830   -2.8787    2.9760 H       1  UNL1        0.0278
      9 H           0.1155   -1.3760    2.9279 H       1  UNL1        0.0278
     10 H           1.7928   -1.3757    2.3176 H       1  UNL1        0.0278
     11 H          -0.4695   -4.7834   -1.2926 H       1  UNL1        0.0693
     12 C           0.0000    0.0000    0.0000 C.ar    1  UNL1        0.0264
     13 C           0.4318    0.7479    1.0994 C.ar    1  UNL1       -0.0435
     14 C           1.1238    1.9464    0.7767 C.ar    1  UNL1       -0.0428
     15 H           0.2474    0.4285    2.1361 H       1  UNL1        0.0632
     16 C           1.2341    2.1375   -0.6125 C.ar    1  UNL1       -0.0208
     17 S           0.4712    0.8161   -1.4868 S.2     1  UNL1       -0.0959
     18 C           1.6677    2.8884    1.8146 C.3     1  UNL1       -0.0392
     19 H           1.4549    2.5198    2.8367 H       1  UNL1        0.0278
     20 H           1.2220    3.9012    1.7262 H       1  UNL1        0.0278
     21 H           2.7677    3.0088    1.7262 H       1  UNL1        0.0278
     22 H           1.7088    2.9595   -1.1616 H       1  UNL1        0.0696
@<TRIPOS>BOND
     1    17    16   ar
     2    17    12   ar
     3     6     1   ar
     4     6     5   ar
     5    11     1    1
     6    22    16    1
     7     1     2   ar
     8    16    14   ar
     9    12     5    1
    10    12    13   ar
    11     5     3   ar
    12     2     3   ar
    13     2     4    1
    14    14    13   ar
    15    14    18    1
    16     3     7    1
    17    13    15    1
    18    21    18    1
    19    20    18    1
    20    18    19    1
    21    10     7    1
    22     7     9    1
    23     7     8    1
