@<TRIPOS>MOLECULE
../XYZ_Files/Methylthiophene_Phi_30_Theta_0_Methylthiophene.xyz
 22 23 0 0 0
SMALL
GASTEIGER

@<TRIPOS>ATOM
      1 C           0.3363   -3.8521    0.7751 C.ar    1  UNL1       -0.0235
      2 C           0.3225   -3.6899   -0.6126 C.ar    1  UNL1       -0.0512
      3 C           0.2055   -2.3481   -1.0666 C.ar    1  UNL1       -0.0352
      4 H           0.3971   -4.5438   -1.3029 H       1  UNL1        0.0626
      5 C           0.1256   -1.4352    0.0000 C.ar    1  UNL1        0.0288
      6 S           0.1993   -2.2783    1.5445 S.2     1  UNL1       -0.0959
      7 C           0.1728   -1.9712   -2.5219 C.3     1  UNL1       -0.0386
      8 H           0.2511   -2.8677   -3.1669 H       1  UNL1        0.0278
      9 H           1.0094   -1.2930   -2.7908 H       1  UNL1        0.0278
     10 H          -0.7687   -1.4482   -2.7910 H       1  UNL1        0.0278
     11 H           0.4160   -4.7653    1.3753 H       1  UNL1        0.0693
     12 C           0.0000    0.0000    0.0000 C.ar    1  UNL1        0.0264
     13 C           0.3650    0.7827    1.0994 C.ar    1  UNL1       -0.0435
     14 C           0.9499    2.0369    0.7767 C.ar    1  UNL1       -0.0428
     15 H           0.2091    0.4484    2.1361 H       1  UNL1        0.0632
     16 C           1.0432    2.2369   -0.6125 C.ar    1  UNL1       -0.0208
     17 S           0.3983    0.8541   -1.4868 S.2     1  UNL1       -0.0959
     18 C           1.4096    3.0227    1.8146 C.3     1  UNL1       -0.0392
     19 H           1.2297    2.6370    2.8367 H       1  UNL1        0.0278
     20 H           0.8773    3.9929    1.7262 H       1  UNL1        0.0278
     21 H           2.4949    3.2386    1.7262 H       1  UNL1        0.0278
     22 H           1.4443    3.0972   -1.1616 H       1  UNL1        0.0696
@<TRIPOS>BOND
     1     8     7    1
     2    10     7    1
     3     9     7    1
     4     7     3    1
     5    17    16   ar
     6    17    12   ar
     7     4     2    1
     8    22    16    1
     9     3     2   ar
    10     3     5   ar
    11     2     1   ar
    12    16    14   ar
    13    12     5    1
    14    12    13   ar
    15     5     6   ar
    16     1    11    1
    17     1     6   ar
    18    14    13   ar
    19    14    18    1
    20    13    15    1
    21    21    18    1
    22    20    18    1
    23    18    19    1
