@<TRIPOS>MOLECULE
../XYZ_Files/Methylthiophene_Phi_20_Theta_170_Methylthiophene.xyz
 22 23 0 0 0
SMALL
GASTEIGER

@<TRIPOS>ATOM
      1 C          -0.1339   -3.8667   -0.7635 C.ar    1  UNL1       -0.0235
      2 C           0.1067   -3.7040    0.6032 C.ar    1  UNL1       -0.0512
      3 C           0.1852   -2.3571    1.0504 C.ar    1  UNL1       -0.0352
      4 H           0.2267   -4.5611    1.2830 H       1  UNL1        0.0626
      5 C           0.0000   -1.4407    0.0000 C.ar    1  UNL1        0.0288
      6 S          -0.2682   -2.2870   -1.5210 S.2     1  UNL1       -0.0959
      7 C           0.4376   -1.9787    2.4836 C.3     1  UNL1       -0.0386
      8 H           0.5497   -2.8787    3.1189 H       1  UNL1        0.0278
      9 H          -0.3947   -1.3760    2.9035 H       1  UNL1        0.0278
     10 H           1.3631   -1.3757    2.5937 H       1  UNL1        0.0278
     11 H          -0.2379   -4.7834   -1.3545 H       1  UNL1        0.0693
     12 C           0.0000    0.0000    0.0000 C.ar    1  UNL1        0.0264
     13 C           0.2954    0.8115    1.0994 C.ar    1  UNL1       -0.0435
     14 C           0.7687    2.1119    0.7767 C.ar    1  UNL1       -0.0428
     15 H           0.1693    0.4650    2.1361 H       1  UNL1        0.0632
     16 C           0.8442    2.3193   -0.6125 C.ar    1  UNL1       -0.0208
     17 S           0.3223    0.8856   -1.4868 S.2     1  UNL1       -0.0959
     18 C           1.1408    3.1341    1.8146 C.3     1  UNL1       -0.0392
     19 H           0.9952    2.7341    2.8367 H       1  UNL1        0.0278
     20 H           0.5260    4.0541    1.7262 H       1  UNL1        0.0278
     21 H           2.2032    3.4437    1.7262 H       1  UNL1        0.0278
     22 H           1.1689    3.2113   -1.1616 H       1  UNL1        0.0696
@<TRIPOS>BOND
     1     6     1   ar
     2     6     5   ar
     3    17    16   ar
     4    17    12   ar
     5    11     1    1
     6    22    16    1
     7     1     2   ar
     8    16    14   ar
     9    12     5    1
    10    12    13   ar
    11     5     3   ar
    12     2     3   ar
    13     2     4    1
    14    14    13   ar
    15    14    18    1
    16     3     7    1
    17    13    15    1
    18    21    18    1
    19    20    18    1
    20    18    19    1
    21     7    10    1
    22     7     9    1
    23     7     8    1
