@<TRIPOS>MOLECULE
../XYZ_Files/Methylthiophene_Phi_25_Theta_180_Methylthiophene.xyz
 22 23 0 0 0
SMALL
GASTEIGER

@<TRIPOS>ATOM
      1 C           0.0007   -3.8667   -0.7751 C.ar    1  UNL1       -0.0235
      2 C           0.0003   -3.7040    0.6126 C.ar    1  UNL1       -0.0512
      3 C          -0.0001   -2.3571    1.0666 C.ar    1  UNL1       -0.0352
      4 H           0.0005   -4.5611    1.3029 H       1  UNL1        0.0626
      5 C          -0.0000   -1.4407   -0.0000 C.ar    1  UNL1        0.0288
      6 S          -0.0000   -2.2870   -1.5445 S.2     1  UNL1       -0.0959
      7 C          -0.0003   -1.9787    2.5219 C.3     1  UNL1       -0.0386
      8 H          -0.0002   -2.8787    3.1669 H       1  UNL1        0.0278
      9 H          -0.8929   -1.3760    2.7908 H       1  UNL1        0.0278
     10 H           0.8920   -1.3757    2.7910 H       1  UNL1        0.0278
     11 H           0.0009   -4.7834   -1.3753 H       1  UNL1        0.0693
     12 C           0.0000    0.0000    0.0000 C.ar    1  UNL1        0.0264
     13 C           0.3650    0.7827    1.0994 C.ar    1  UNL1       -0.0435
     14 C           0.9499    2.0369    0.7767 C.ar    1  UNL1       -0.0428
     15 H           0.2091    0.4484    2.1361 H       1  UNL1        0.0632
     16 C           1.0432    2.2369   -0.6125 C.ar    1  UNL1       -0.0208
     17 S           0.3983    0.8541   -1.4868 S.2     1  UNL1       -0.0959
     18 C           1.4096    3.0227    1.8146 C.3     1  UNL1       -0.0392
     19 H           1.2297    2.6370    2.8367 H       1  UNL1        0.0278
     20 H           0.8773    3.9929    1.7262 H       1  UNL1        0.0278
     21 H           2.4949    3.2386    1.7262 H       1  UNL1        0.0278
     22 H           1.4443    3.0972   -1.1616 H       1  UNL1        0.0696
@<TRIPOS>BOND
     1     6     1   ar
     2     6     5   ar
     3    17    16   ar
     4    17    12   ar
     5    11     1    1
     6    22    16    1
     7     1     2   ar
     8    16    14   ar
     9    12     5    1
    10    12    13   ar
    11     5     3   ar
    12     2     3   ar
    13     2     4    1
    14    14    13   ar
    15    14    18    1
    16     3     7    1
    17    13    15    1
    18    21    18    1
    19    20    18    1
    20    18    19    1
    21     7     9    1
    22     7    10    1
    23     7     8    1
