@<TRIPOS>MOLECULE
../XYZ_Files/Methylthiophene_XYZ_Improper_Bend_Methyl_Phi_20.xyz
 15 15 0 0 0
SMALL
GASTEIGER

@<TRIPOS>ATOM
      1 C           0.0000    0.0000    0.0000 C.ar    1  UNL1       -0.0130
      2 C          -0.0000   -0.8443   -1.1132 C.ar    1  UNL1       -0.0489
      3 C           0.0003   -2.2354   -0.8211 C.ar    1  UNL1       -0.0432
      4 H          -0.0001   -0.4560   -2.1430 H       1  UNL1        0.0628
      5 C           0.0005   -2.4839    0.5630 C.ar    1  UNL1       -0.0212
      6 S          -0.0002   -0.9710    1.4645 S.2     1  UNL1       -0.1016
      7 C           0.0005   -3.2998   -1.8832 C.3     1  UNL1       -0.0392
      8 H           0.0003   -2.8516   -2.8957 H       1  UNL1        0.0278
      9 H          -0.8917   -3.9560   -1.8091 H       1  UNL1        0.0278
     10 H           0.8931   -3.9555   -1.8092 H       1  UNL1        0.0278
     11 C          -0.4960    1.3627   -0.0000 C.3     1  UNL1       -0.0334
     12 H          -1.5758    1.3815   -0.0000 H       1  UNL1        0.0283
     13 H          -0.1546    1.8988   -0.8732 H       1  UNL1        0.0283
     14 H          -0.1546    1.8988    0.8732 H       1  UNL1        0.0283
     15 H           0.0006   -3.4420    1.0963 H       1  UNL1        0.0696
@<TRIPOS>BOND
     1     8     7    1
     2     4     2    1
     3     7    10    1
     4     7     9    1
     5     7     3    1
     6     2     3   ar
     7     2     1   ar
     8    13    11    1
     9     3     5   ar
    10     1    11    1
    11     1     6   ar
    12    11    12    1
    13    11    14    1
    14     5    15    1
    15     5     6   ar
