@<TRIPOS>MOLECULE
../XYZ_Files/Methylthiophene_Phi_30_Theta_50_Methylthiophene.xyz
 22 23 0 0 0
SMALL
GASTEIGER

@<TRIPOS>ATOM
      1 C          -0.5942   -3.8667    0.4977 C.ar    1  UNL1       -0.0235
      2 C           0.4691   -3.7040   -0.3940 C.ar    1  UNL1       -0.0512
      3 C           0.8171   -2.3571   -0.6856 C.ar    1  UNL1       -0.0352
      4 H           0.9978   -4.5611   -0.8378 H       1  UNL1        0.0626
      5 C          -0.0000   -1.4407   -0.0000 C.ar    1  UNL1        0.0288
      6 S          -1.1831   -2.2870    0.9928 S.2     1  UNL1       -0.0959
      7 C           1.9321   -1.9787   -1.6208 C.3     1  UNL1       -0.0386
      8 H           2.4262   -2.8787   -2.0355 H       1  UNL1        0.0278
      9 H           2.7118   -1.3760   -1.1099 H       1  UNL1        0.0278
     10 H           1.5647   -1.3757   -2.4773 H       1  UNL1        0.0278
     11 H          -1.0541   -4.7834    0.8833 H       1  UNL1        0.0693
     12 C           0.0000    0.0000    0.0000 C.ar    1  UNL1        0.0264
     13 C           0.4318    0.7479    1.0994 C.ar    1  UNL1       -0.0435
     14 C           1.1238    1.9464    0.7767 C.ar    1  UNL1       -0.0428
     15 H           0.2474    0.4285    2.1361 H       1  UNL1        0.0632
     16 C           1.2341    2.1375   -0.6125 C.ar    1  UNL1       -0.0208
     17 S           0.4712    0.8161   -1.4868 S.2     1  UNL1       -0.0959
     18 C           1.6677    2.8884    1.8146 C.3     1  UNL1       -0.0392
     19 H           1.4549    2.5198    2.8367 H       1  UNL1        0.0278
     20 H           1.2220    3.9012    1.7262 H       1  UNL1        0.0278
     21 H           2.7677    3.0088    1.7262 H       1  UNL1        0.0278
     22 H           1.7088    2.9595   -1.1616 H       1  UNL1        0.0696
@<TRIPOS>BOND
     1    10     7    1
     2     8     7    1
     3     7     9    1
     4     7     3    1
     5    17    16   ar
     6    17    12   ar
     7    22    16    1
     8     4     2    1
     9     3     2   ar
    10     3     5   ar
    11    16    14   ar
    12     2     1   ar
    13    12     5    1
    14    12    13   ar
    15     5     6   ar
    16     1    11    1
    17     1     6   ar
    18    14    13   ar
    19    14    18    1
    20    13    15    1
    21    21    18    1
    22    20    18    1
    23    18    19    1
