@<TRIPOS>MOLECULE
../XYZ_Files/Methylthiophene_Phi_0_Theta_230_Methylthiophene.xyz
 22 23 0 0 0
SMALL
GASTEIGER

@<TRIPOS>ATOM
      1 C           0.5942   -3.8667   -0.4977 C.ar    1  UNL1       -0.0235
      2 C          -0.4691   -3.7040    0.3940 C.ar    1  UNL1       -0.0512
      3 C          -0.8171   -2.3571    0.6856 C.ar    1  UNL1       -0.0352
      4 H          -0.9978   -4.5611    0.8378 H       1  UNL1        0.0626
      5 C          -0.0000   -1.4407   -0.0000 C.ar    1  UNL1        0.0288
      6 S           1.1831   -2.2870   -0.9928 S.2     1  UNL1       -0.0959
      7 C          -1.9321   -1.9787    1.6208 C.3     1  UNL1       -0.0386
      8 H          -2.4262   -2.8787    2.0355 H       1  UNL1        0.0278
      9 H          -2.7118   -1.3760    1.1099 H       1  UNL1        0.0278
     10 H          -1.5647   -1.3757    2.4773 H       1  UNL1        0.0278
     11 H           1.0541   -4.7834   -0.8833 H       1  UNL1        0.0693
     12 C           0.0000    0.0000    0.0000 C.ar    1  UNL1        0.0264
     13 C           0.0000    0.8636    1.0994 C.ar    1  UNL1       -0.0435
     14 C           0.0001    2.2475    0.7767 C.ar    1  UNL1       -0.0428
     15 H           0.0000    0.4948    2.1361 H       1  UNL1        0.0632
     16 C           0.0001    2.4682   -0.6125 C.ar    1  UNL1       -0.0208
     17 S           0.0000    0.9424   -1.4868 S.2     1  UNL1       -0.0959
     18 C           0.0001    3.3353    1.8146 C.3     1  UNL1       -0.0392
     19 H           0.0001    2.9096    2.8367 H       1  UNL1        0.0278
     20 H          -0.8923    3.9896    1.7262 H       1  UNL1        0.0278
     21 H           0.8925    3.9895    1.7262 H       1  UNL1        0.0278
     22 H           0.0001    3.4174   -1.1616 H       1  UNL1        0.0696
@<TRIPOS>BOND
     1    17    16   ar
     2    17    12   ar
     3    22    16    1
     4     6     1   ar
     5     6     5   ar
     6    11     1    1
     7    16    14   ar
     8     1     2   ar
     9    12     5    1
    10    12    13   ar
    11     5     3   ar
    12     2     3   ar
    13     2     4    1
    14     3     7    1
    15    14    13   ar
    16    14    18    1
    17    13    15    1
    18     9     7    1
    19     7     8    1
    20     7    10    1
    21    21    18    1
    22    20    18    1
    23    18    19    1
