@<TRIPOS>MOLECULE
../XYZ_Files/Methylthiophene_Phi_40_Theta_240_Methylthiophene.xyz
 22 23 0 0 0
SMALL
GASTEIGER

@<TRIPOS>ATOM
      1 C           0.6716   -3.8667   -0.3869 C.ar    1  UNL1       -0.0238
      2 C          -0.5303   -3.7040    0.3065 C.ar    1  UNL1       -0.0515
      3 C          -0.9238   -2.3571    0.5333 C.ar    1  UNL1       -0.0385
      4 H          -1.1281   -4.5611    0.6519 H       1  UNL1        0.0626
      5 C          -0.0000   -1.4407   -0.0000 C.ar    1  UNL1        0.0145
      6 S           1.3376   -2.2870   -0.7722 S.2     1  UNL1       -0.0996
      7 C          -2.1842   -1.9787    1.2607 C.3     1  UNL1       -0.0389
      8 H          -2.7428   -2.8787    1.5833 H       1  UNL1        0.0278
      9 H          -2.8633   -1.3760    0.6222 H       1  UNL1        0.0278
     10 H          -1.9711   -1.3757    2.1680 H       1  UNL1        0.0278
     11 H           1.1915   -4.7834   -0.6868 H       1  UNL1        0.0693
     12 C           0.0000    0.0000    0.0000 C.3     1  UNL1        0.0892
     13 C           0.5551    0.6615    1.0994 C.2     1  UNL1       -0.0613
     14 C           1.4447    1.7217    0.7767 C.2     1  UNL1       -0.0606
     15 H           0.3181    0.3790    2.1361 H       1  UNL1        0.0590
     16 C           1.5866    1.8907   -0.6125 C.3     1  UNL1        0.0428
     17 S           0.6058    0.7219   -1.4868 S.3     1  UNL1       -0.1334
     18 C           2.1439    2.5549    1.8146 C.3     1  UNL1       -0.0426
     19 H           1.8703    2.2289    2.8367 H       1  UNL1        0.0275
     20 H           1.8809    3.6297    1.7262 H       1  UNL1        0.0275
     21 H           3.2481    2.4825    1.7262 H       1  UNL1        0.0275
     22 H           2.1967    2.6178   -1.1616 H       1  UNL1        0.0472
@<TRIPOS>BOND
     1    17    16    1
     2    17    12    1
     3    22    16    1
     4     6     1   ar
     5     6     5   ar
     6    11     1    1
     7    16    14    1
     8     1     2   ar
     9    12     5    1
    10    12    13    1
    11     5     3   ar
    12     2     3   ar
    13     2     4    1
    14     3     7    1
    15     9     7    1
    16    14    13    2
    17    14    18    1
    18    13    15    1
    19     7     8    1
    20     7    10    1
    21    21    18    1
    22    20    18    1
    23    18    19    1
