@<TRIPOS>MOLECULE
../XYZ_Files/Methylthiophene_Phi_60_Theta_110_Methylthiophene.xyz
 22 23 0 0 0
SMALL
GASTEIGER

@<TRIPOS>ATOM
      1 C          -0.7281   -3.8667   -0.2658 C.ar    1  UNL1       -0.0238
      2 C           0.5757   -3.7040    0.2092 C.ar    1  UNL1       -0.0515
      3 C           1.0023   -2.3571    0.3649 C.ar    1  UNL1       -0.0385
      4 H           1.2245   -4.5611    0.4452 H       1  UNL1        0.0626
      5 C          -0.0000   -1.4407   -0.0000 C.ar    1  UNL1        0.0145
      6 S          -1.4513   -2.2870   -0.5282 S.2     1  UNL1       -0.0996
      7 C           2.3697   -1.9787    0.8628 C.3     1  UNL1       -0.0389
      8 H           2.9759   -2.8787    1.0834 H       1  UNL1        0.0278
      9 H           2.3171   -1.3760    1.7935 H       1  UNL1        0.0278
     10 H           2.9278   -1.3757    0.1164 H       1  UNL1        0.0278
     11 H          -1.2920   -4.7834   -0.4713 H       1  UNL1        0.0693
     12 C           0.0000    0.0000    0.0000 C.3     1  UNL1        0.0892
     13 C           0.7479    0.4318    1.0994 C.2     1  UNL1       -0.0613
     14 C           1.9464    1.1237    0.7767 C.2     1  UNL1       -0.0606
     15 H           0.4285    0.2474    2.1361 H       1  UNL1        0.0590
     16 C           2.1375    1.2340   -0.6125 C.3     1  UNL1        0.0428
     17 S           0.8162    0.4712   -1.4868 S.3     1  UNL1       -0.1334
     18 C           2.8885    1.6676    1.8146 C.3     1  UNL1       -0.0426
     19 H           2.5198    1.4547    2.8367 H       1  UNL1        0.0275
     20 H           3.0089    2.7675    1.7262 H       1  UNL1        0.0275
     21 H           3.9013    1.2219    1.7262 H       1  UNL1        0.0275
     22 H           2.9596    1.7086   -1.1616 H       1  UNL1        0.0472
@<TRIPOS>BOND
     1    17    16    1
     2    17    12    1
     3    22    16    1
     4    16    14    1
     5     6     1   ar
     6     6     5   ar
     7    11     1    1
     8     1     2   ar
     9    12     5    1
    10    12    13    1
    11     5     3   ar
    12    10     7    1
    13     2     3   ar
    14     2     4    1
    15     3     7    1
    16    14    13    2
    17    14    18    1
    18     7     8    1
    19     7     9    1
    20    13    15    1
    21    21    18    1
    22    20    18    1
    23    18    19    1
