@<TRIPOS>MOLECULE
../XYZ_Files/Methylthiophene_Phi_50_Theta_230_Methylthiophene.xyz
 22 23 0 0 0
SMALL
GASTEIGER

@<TRIPOS>ATOM
      1 C           0.5942   -3.8667   -0.4977 C.ar    1  UNL1       -0.0238
      2 C          -0.4691   -3.7040    0.3940 C.ar    1  UNL1       -0.0515
      3 C          -0.8171   -2.3571    0.6856 C.ar    1  UNL1       -0.0385
      4 H          -0.9978   -4.5611    0.8378 H       1  UNL1        0.0626
      5 C          -0.0000   -1.4407   -0.0000 C.ar    1  UNL1        0.0145
      6 S           1.1831   -2.2870   -0.9928 S.2     1  UNL1       -0.0996
      7 C          -1.9321   -1.9787    1.6208 C.3     1  UNL1       -0.0389
      8 H          -2.4262   -2.8787    2.0355 H       1  UNL1        0.0278
      9 H          -2.7118   -1.3760    1.1099 H       1  UNL1        0.0278
     10 H          -1.5647   -1.3757    2.4773 H       1  UNL1        0.0278
     11 H           1.0541   -4.7834   -0.8833 H       1  UNL1        0.0693
     12 C           0.0000    0.0000    0.0000 C.3     1  UNL1        0.0892
     13 C           0.6616    0.5551    1.0994 C.2     1  UNL1       -0.0613
     14 C           1.7217    1.4446    0.7767 C.2     1  UNL1       -0.0606
     15 H           0.3791    0.3180    2.1361 H       1  UNL1        0.0590
     16 C           1.8908    1.5864   -0.6125 C.3     1  UNL1        0.0428
     17 S           0.7219    0.6057   -1.4868 S.3     1  UNL1       -0.1334
     18 C           2.5550    2.1438    1.8146 C.3     1  UNL1       -0.0426
     19 H           2.2289    1.8702    2.8367 H       1  UNL1        0.0275
     20 H           2.4826    3.2480    1.7262 H       1  UNL1        0.0275
     21 H           3.6298    1.8807    1.7262 H       1  UNL1        0.0275
     22 H           2.6179    2.1966   -1.1616 H       1  UNL1        0.0472
@<TRIPOS>BOND
     1    17    16    1
     2    17    12    1
     3    22    16    1
     4     6     1   ar
     5     6     5   ar
     6    11     1    1
     7    16    14    1
     8     1     2   ar
     9    12     5    1
    10    12    13    1
    11     5     3   ar
    12     2     3   ar
    13     2     4    1
    14     3     7    1
    15    14    13    2
    16    14    18    1
    17    13    15    1
    18     9     7    1
    19     7     8    1
    20     7    10    1
    21    21    18    1
    22    20    18    1
    23    18    19    1
