@<TRIPOS>MOLECULE
../XYZ_Files/Methylthiophene_Phi_5_Theta_190_Methylthiophene.xyz
 22 23 0 0 0
SMALL
GASTEIGER

@<TRIPOS>ATOM
      1 C           0.1353   -3.8667   -0.7632 C.ar    1  UNL1       -0.0235
      2 C          -0.1061   -3.7040    0.6033 C.ar    1  UNL1       -0.0512
      3 C          -0.1853   -2.3571    1.0504 C.ar    1  UNL1       -0.0352
      4 H          -0.2258   -4.5611    1.2832 H       1  UNL1        0.0626
      5 C           0.0000   -1.4407    0.0000 C.ar    1  UNL1        0.0288
      6 S           0.2682   -2.2870   -1.5210 S.2     1  UNL1       -0.0959
      7 C          -0.4382   -1.9787    2.4835 C.3     1  UNL1       -0.0386
      8 H          -0.5502   -2.8787    3.1188 H       1  UNL1        0.0278
      9 H          -1.3639   -1.3760    2.5934 H       1  UNL1        0.0278
     10 H           0.3938   -1.3757    2.9035 H       1  UNL1        0.0278
     11 H           0.2397   -4.7834   -1.3542 H       1  UNL1        0.0693
     12 C           0.0000    0.0000    0.0000 C.ar    1  UNL1        0.0264
     13 C           0.0753    0.8603    1.0994 C.ar    1  UNL1       -0.0435
     14 C           0.1959    2.2390    0.7767 C.ar    1  UNL1       -0.0428
     15 H           0.0432    0.4929    2.1361 H       1  UNL1        0.0632
     16 C           0.2152    2.4588   -0.6125 C.ar    1  UNL1       -0.0208
     17 S           0.0822    0.9388   -1.4868 S.2     1  UNL1       -0.0959
     18 C           0.2908    3.3226    1.8146 C.3     1  UNL1       -0.0392
     19 H           0.2537    2.8985    2.8367 H       1  UNL1        0.0278
     20 H          -0.5412    4.0521    1.7262 H       1  UNL1        0.0278
     21 H           1.2368    3.8966    1.7262 H       1  UNL1        0.0278
     22 H           0.2979    3.4044   -1.1616 H       1  UNL1        0.0696
@<TRIPOS>BOND
     1     6     1   ar
     2     6     5   ar
     3    17    16   ar
     4    17    12   ar
     5    11     1    1
     6    22    16    1
     7     1     2   ar
     8    16    14   ar
     9    12     5    1
    10    12    13   ar
    11     5     3   ar
    12     2     3   ar
    13     2     4    1
    14    14    13   ar
    15    14    18    1
    16     3     7    1
    17    13    15    1
    18    21    18    1
    19    20    18    1
    20    18    19    1
    21     7     9    1
    22     7    10    1
    23     7     8    1
